tests/data/9bus/9barras3.pwf
TITU
Sistema-Teste de 9 Barras - Tensao Terminal Geradores em 1.050pu
DOPC IMPR
(Op) E (Op) E (Op) E (Op) E (Op) E (Op) E (Op) E (Op) E (Op) E (Op) E
QLIM L CREM L CTAP L NEWT L MOCT L MOCG L MOCF L RCVG L RMON L
99999
DBAR
(Num)OETGb(   nome   )Gl( V)( A)( Pg)( Qg)( Qn)( Qm)(Bc  )( Pl)( Ql)( Sh)Are(Vf)M(1)(2)(3)(4)(5)(6)(7)(8)(9)(10
    1 L2 A BAR-1 GER1  A1050  0.178.66.662-122. 122.                       11000
    2 L1 A BAR-2 GER2  A1050-.41 150.12.39 -96.  96.                       11000
    3 L  E BAR-3       A1051 -5.                                           11000
    4 L  E BAR-4       A1047-6.4                                           11000
    5 L  E BAR-5 CAR1  A1035-8.5                            55.  27.       11000
    6 L  E BAR-6 CAR2  A1044-8.6                            37.  18.       11000
    7 L  E BAR-7 CAR3  A1030-10.                            68.  45.       11000
    8 L  E BAR-8 CAR4  A1042-9.6                            90.  35.       11000
    9 L  E BAR-9 CAR5  A1026-13.                            75.  28.       11000
99999
DLIN
(De )d O d(Pa )NcEP ( R% )( X% )(Mvar)(Tap)(Tmn)(Tmx)(Phs)(Bc  )(Cn)(Ce)Ns(Cq)(1)(2)(3)(4)(5)(6)(7)(8)(9)(10
    1         3 1           5.34         1.                     300.330.  300.
    2         4 1           7.68         1.                     230.253.  230.
    3         5 1      1.7   9.2  15.8                          200.220.  200.
    3         8 1       1.   8.5  17.6                          200.220.  200.
    4         7 1       .9   7.9  16.2                          200.220.  200.
    5         7 1      3.2  16.1  30.6                          200.220.  200.
    6         4 1      .85   7.2  14.9                          200.220.  200.
    6         8 1      1.1   8.4  25.6                          200.220.  200.
    7         9 1     1.19 10.08  20.9                          200.220.  200.
    8         9 1      3.9   17.  35.8                          200.220.  200.
99999
DGLT
(G (Vmn) (Vmx) (Vmne (Vmxe
 A   .95  1.05   .95  1.05
99999
DARE
(Ar    (Xchg)     (      Identificacao da area       ) (Xmin) (Xmax)
  1        0.     *** AREA 1 ***                                    2
99999
DGBT
(G ( kV)
 E  230.
 A  13.8
99999
FIM
